Version 4
SHEET 1 880 680
WIRE 448 -64 400 -64
WIRE 240 -16 192 -16
WIRE 432 -16 400 -16
WIRE 32 32 -16 32
WIRE 224 32 192 32
WIRE 448 48 448 -64
WIRE 480 48 448 48
WIRE 688 64 576 64
WIRE -176 80 -224 80
WIRE 16 80 -16 80
WIRE 432 80 432 -16
WIRE 480 80 432 80
WIRE 240 96 240 -16
WIRE 272 96 240 96
WIRE 624 96 576 96
WIRE 480 112 368 112
WIRE -192 128 -224 128
WIRE 224 128 224 32
WIRE 272 128 224 128
WIRE 32 144 32 32
WIRE 64 144 32 144
WIRE 416 144 368 144
WIRE 272 160 160 160
WIRE 16 176 16 80
WIRE 64 176 16 176
WIRE -176 192 -176 80
WIRE -144 192 -176 192
WIRE 208 192 160 192
WIRE 64 208 -48 208
WIRE -192 224 -192 128
WIRE -144 224 -192 224
WIRE 0 240 -48 240
WIRE 624 240 624 96
WIRE -144 256 -224 256
WIRE 416 288 416 144
WIRE 208 336 208 192
WIRE 0 384 0 240
FLAG -224 80 A0
IOPIN -224 80 In
FLAG -224 128 B0
IOPIN -224 128 In
FLAG 0 384 S0
IOPIN 0 384 Out
FLAG -16 32 A1
IOPIN -16 32 In
FLAG -16 80 B1
IOPIN -16 80 In
FLAG 208 336 S1
IOPIN 208 336 Out
FLAG 192 -16 A2
IOPIN 192 -16 In
FLAG 192 32 B2
IOPIN 192 32 In
FLAG 416 288 S2
IOPIN 416 288 Out
FLAG 400 -64 A3
IOPIN 400 -64 In
FLAG 400 -16 B3
IOPIN 400 -16 In
FLAG 624 240 S3
IOPIN 624 240 Out
FLAG -224 256 CIN
IOPIN -224 256 In
FLAG 688 64 Cout
IOPIN 688 64 Out
SYMBOL FullAdder -96 224 R0
SYMATTR InstName X1
SYMBOL FullAdder 112 176 R0
SYMATTR InstName X2
SYMBOL FullAdder 320 128 R0
SYMATTR InstName X3
SYMBOL FullAdder 528 80 R0
SYMATTR InstName X4
